data_image0
_chemical_formula_structural       Co18Fe19Ni18Pd17Pt20
_chemical_formula_sum              "Co18 Fe19 Ni18 Pd17 Pt20"
_cell_length_a       10.3128
_cell_length_b       10.4452
_cell_length_c       22.9229
_cell_angle_alpha    89.8372
_cell_angle_beta     89.8524
_cell_angle_gamma    120.451

_space_group_name_H-M_alt    "P 1"
_space_group_IT_number       1

loop_
  _space_group_symop_operation_xyz
  'x, y, z'

loop_
  _atom_site_type_symbol
  _atom_site_label
  _atom_site_symmetry_multiplicity
  _atom_site_fract_x
  _atom_site_fract_y
  _atom_site_fract_z
  _atom_site_occupancy
  Co  Co1       1.0  0.65492  0.38856  0.33582  1.0000
  Co  Co2       1.0  0.32033  0.22631  0.52205  1.0000
  Co  Co3       1.0  0.23960  0.81241  0.14720  1.0000
  Co  Co4       1.0  0.49588  0.05555  0.43421  1.0000
  Co  Co5       1.0  0.23938  0.55593  0.15375  1.0000
  Co  Co6       1.0  0.24968  0.32473  0.15207  1.0000
  Co  Co7       1.0  0.73933  0.06031  0.43255  1.0000
  Co  Co8       1.0  0.66497  0.63821  0.33520  1.0000
  Co  Co9       1.0  0.66693  0.15679  0.33535  1.0000
  Co  Co10      1.0  0.49165  0.81889  0.43712  1.0000
  Co  Co11      1.0  0.24083  0.30204  0.43256  1.0000
  Co  Co12      1.0  0.17207  0.14539  0.33815  1.0000
  Co  Co13      1.0  0.41404  0.41929  0.06766  1.0000
  Co  Co14      1.0  0.32168  0.47515  0.23895  1.0000
  Co  Co15      1.0  0.90525  0.15009  0.33815  1.0000
  Co  Co16      1.0  0.75172  0.32041  0.15037  1.0000
  Co  Co17      1.0  0.16995  0.91030  0.34025  1.0000
  Co  Co18      1.0  0.68142  0.16482  0.06356  1.0000
  Fe  Fe1       1.0  0.90532  0.38683  0.33688  1.0000
  Fe  Fe2       1.0  0.07306  0.47905  0.53072  1.0000
  Fe  Fe3       1.0  0.48898  0.55865  0.15065  1.0000
  Fe  Fe4       1.0  0.40895  0.14805  0.33735  1.0000
  Fe  Fe5       1.0  0.84072  0.23248  0.24553  1.0000
  Fe  Fe6       1.0  0.57720  0.23220  0.24617  1.0000
  Fe  Fe7       1.0  0.92806  0.15855  0.05978  1.0000
  Fe  Fe8       1.0  0.00264  0.81496  0.15019  1.0000
  Fe  Fe9       1.0  0.25338  0.57334  0.43411  1.0000
  Fe  Fe10      1.0  0.32192  0.71623  0.24133  1.0000
  Fe  Fe11      1.0  0.07032  0.98087  0.52538  1.0000
  Fe  Fe12      1.0  0.41258  0.39070  0.33680  1.0000
  Fe  Fe13      1.0  0.82650  0.72916  0.52807  1.0000
  Fe  Fe14      1.0  0.07381  0.72153  0.52893  1.0000
  Fe  Fe15      1.0  0.16502  0.39737  0.07037  1.0000
  Fe  Fe16      1.0  0.82810  0.48475  0.52826  1.0000
  Fe  Fe17      1.0  0.00052  0.55683  0.15120  1.0000
  Fe  Fe18      1.0  0.81949  0.21612  0.52508  1.0000
  Fe  Fe19      1.0  0.67762  0.40575  0.06779  1.0000
  Ni  Ni1       1.0  0.31819  0.72384  0.52395  1.0000
  Ni  Ni2       1.0  0.57804  0.72548  0.24343  1.0000
  Ni  Ni3       1.0  0.82628  0.72694  0.24476  1.0000
  Ni  Ni4       1.0  0.58204  0.98142  0.52247  1.0000
  Ni  Ni5       1.0  0.08334  0.23305  0.24416  1.0000
  Ni  Ni6       1.0  0.24573  0.06448  0.42938  1.0000
  Ni  Ni7       1.0  0.08364  0.98572  0.24588  1.0000
  Ni  Ni8       1.0  0.24371  0.05711  0.15094  1.0000
  Ni  Ni9       1.0  0.00232  0.06910  0.42943  1.0000
  Ni  Ni10      1.0  0.58030  0.48181  0.52676  1.0000
  Ni  Ni11      1.0  0.82460  0.98148  0.52486  1.0000
  Ni  Ni12      1.0  0.32080  0.23115  0.24513  1.0000
  Ni  Ni13      1.0  0.08154  0.47358  0.24239  1.0000
  Ni  Ni14      1.0  0.25222  0.81570  0.43363  1.0000
  Ni  Ni15      1.0  0.90291  0.63966  0.33688  1.0000
  Ni  Ni16      1.0  0.75617  0.56127  0.14958  1.0000
  Ni  Ni17      1.0  0.66529  0.63341  0.06527  1.0000
  Ni  Ni18      1.0  0.00506  0.32346  0.15275  1.0000
  Pd  Pd1       1.0  0.99949  0.30731  0.43279  1.0000
  Pd  Pd2       1.0  0.32527  0.98632  0.24439  1.0000
  Pd  Pd3       1.0  0.48839  0.56193  0.42986  1.0000
  Pd  Pd4       1.0  0.67231  0.90838  0.05564  1.0000
  Pd  Pd5       1.0  0.48483  0.30264  0.43001  1.0000
  Pd  Pd6       1.0  0.41395  0.64325  0.33370  1.0000
  Pd  Pd7       1.0  0.74860  0.82175  0.43521  1.0000
  Pd  Pd8       1.0  0.17403  0.64096  0.06242  1.0000
  Pd  Pd9       1.0  0.92051  0.39637  0.05872  1.0000
  Pd  Pd10      1.0  0.91807  0.64748  0.05788  1.0000
  Pd  Pd11      1.0  0.66448  0.89978  0.34093  1.0000
  Pd  Pd12      1.0  0.31707  0.97206  0.52849  1.0000
  Pd  Pd13      1.0  0.07655  0.73279  0.24130  1.0000
  Pd  Pd14      1.0  0.00963  0.07040  0.15186  1.0000
  Pd  Pd15      1.0  0.92074  0.89638  0.33858  1.0000
  Pd  Pd16      1.0  0.92235  0.90360  0.05438  1.0000
  Pd  Pd17      1.0  0.57904  0.98233  0.24552  1.0000
  Pt  Pt1       1.0  0.18206  0.16966  0.06053  1.0000
  Pt  Pt2       1.0  0.16208  0.38480  0.33594  1.0000
  Pt  Pt3       1.0  0.15407  0.64284  0.33660  1.0000
  Pt  Pt4       1.0  0.00912  0.82102  0.43586  1.0000
  Pt  Pt5       1.0  0.49378  0.31817  0.14990  1.0000
  Pt  Pt6       1.0  0.49561  0.06546  0.14860  1.0000
  Pt  Pt7       1.0  0.74449  0.56227  0.43044  1.0000
  Pt  Pt8       1.0  0.82914  0.47218  0.24376  1.0000
  Pt  Pt9       1.0  0.57799  0.73632  0.53167  1.0000
  Pt  Pt10      1.0  0.48465  0.80404  0.15174  1.0000
  Pt  Pt11      1.0  0.58111  0.23219  0.53110  1.0000
  Pt  Pt12      1.0  0.83573  0.98244  0.24536  1.0000
  Pt  Pt13      1.0  0.00227  0.56229  0.43632  1.0000
  Pt  Pt14      1.0  0.75888  0.08005  0.14877  1.0000
  Pt  Pt15      1.0  0.74014  0.30106  0.42913  1.0000
  Pt  Pt16      1.0  0.41215  0.90556  0.34248  1.0000
  Pt  Pt17      1.0  0.32177  0.47604  0.52899  1.0000
  Pt  Pt18      1.0  0.57236  0.48095  0.24522  1.0000
  Pt  Pt19      1.0  0.74521  0.79976  0.15015  1.0000
  Pt  Pt20      1.0  0.06953  0.21977  0.53133  1.0000
